@<TRIPOS>MOLECULE
MOL
14 13 0 0 0
SMALL
USER_CHARGES

@<TRIPOS>ATOM
    1 C1       1.9569    -0.1204     0.0000 c    1 MOL  -0.267532
    2 H2       2.7420     0.6373    -0.0000 h1   1 MOL   0.083821
    3 H3       2.1038    -0.7494    -0.8808 h1   1 MOL   0.077363
    4 H4       2.1038    -0.7494     0.8808 h1   1 MOL   0.077360
    5 C5       0.5670     0.5129    -0.0000 c    1 MOL  -0.092257
    6 H6       0.4618     1.1634    -0.8740 h1   1 MOL   0.060623
    7 H7       0.4618     1.1634     0.8740 h1   1 MOL   0.060622
    8 C8      -0.5670    -0.5129    -0.0000 c    1 MOL  -0.092258
    9 H9      -0.4618    -1.1634    -0.8740 h1   1 MOL   0.060627
   10 H10     -0.4618    -1.1634     0.8740 h1   1 MOL   0.060618
   11 C11     -1.9569     0.1204     0.0000 c    1 MOL  -0.267532
   12 H12     -2.1038     0.7494    -0.8808 h1   1 MOL   0.077330
   13 H13     -2.7420    -0.6373     0.0000 h1   1 MOL   0.083821
   14 H14     -2.1038     0.7494     0.8808 h1   1 MOL   0.077394

@<TRIPOS>BOND
    1     1     2 1
    2     1     3 1
    3     1     4 1
    4     1     5 1
    5     5     6 1
    6     5     7 1
    7     5     8 1
    8     8     9 1
    9     8    10 1
   10     8    11 1
   11    11    12 1
   12    11    13 1
   13    11    14 1
